3
Properties=species:S:1:pos:R:3:forces:R:3 energy=-14.450064179365373 pbc="F F F"
O        0.06797811      -0.01890251       0.07273637       0.61925332      -0.09096026       0.17895782
H       -0.78644092      -0.01240405       0.62066003      -0.88955727      -0.14291019       1.57015552
H       -0.27573855       0.15682843      -0.86310595       0.27030396       0.23387045      -1.74911333
3
Properties=species:S:1:pos:R:3:forces:R:3 energy=-14.35654966308764 pbc="F F F"
O        0.01105998      -0.07835698       0.02516336       0.38608069       1.06826206       0.22381195
H        0.67966488       0.62991141       0.10439657      -0.60933250      -0.79891849      -0.11365020
H       -0.76312645       0.39613979       0.28306952       0.22325181      -0.26934357      -0.11016175
3
Properties=species:S:1:pos:R:3:forces:R:3 energy=-14.409573288769034 pbc="F F F"
O       -0.02638466      -0.06211880      -0.01237097      -0.23985471      -0.34700937      -0.25448602
H        0.57959029       0.74397699      -0.01260397       0.77779813       0.97271917      -0.56463333
H       -0.22098823      -0.21869477       0.91965266      -0.53794342      -0.62570980       0.81911935
3
Properties=species:S:1:pos:R:3:forces:R:3 energy=-14.37871553109773 pbc="F F F"
O        0.06194806      -0.00844371       0.03203025      -0.12368185       0.22544630       0.14272344
H       -0.58716004       0.52679820       0.48115244       0.19323689      -0.26633025      -0.18322555
H       -0.28572418      -0.80255466      -0.22768853      -0.06955505       0.04088396       0.04050211
3
Properties=species:S:1:pos:R:3:forces:R:3 energy=-14.370818163948332 pbc="F F F"
O        0.03615587      -0.01108054       0.00638907      -0.09564595      -0.16255488      -0.27414879
H       -0.61554851      -0.66816985      -0.32157857       0.02966640      -0.02310792      -0.16630852
H       -0.10075843       0.12734280       0.88254988       0.06597956       0.18566280       0.44045730
3
Properties=species:S:1:pos:R:3:forces:R:3 energy=-14.309818268674743 pbc="F F F"
O       -0.07416362      -0.06867725       0.04088030       0.99832449       0.49324894      -0.05548440
H        0.61055196      -0.36322450      -0.58248405      -0.40127183      -0.41591531      -0.17900416
H        0.46330241       0.67588254       0.45403624      -0.59705266      -0.07733362       0.23448856
3
Properties=species:S:1:pos:R:3:forces:R:3 energy=-14.377913515395806 pbc="F F F"
O        0.05416627      -0.04912016       0.01393194       0.16399250      -0.02643605       0.00087244
H       -0.67842861      -0.17459086      -0.53492677      -0.09215210       0.02308234       0.01791737
H       -0.17150093       0.35774305       0.84166137      -0.07184040       0.00335370      -0.01878981
3
Properties=species:S:1:pos:R:3:forces:R:3 energy=-14.381045612310098 pbc="F F F"
O        0.05730374      -0.06990073      -0.01079272      -0.03144812      -0.00684483       0.02771523
H       -0.62136038      -0.37408072       0.62788614      -0.20387084      -0.56707089       0.31520914
H       -0.11840963       0.87346812      -0.11047337       0.23531896       0.57391572      -0.34292437
3
Properties=species:S:1:pos:R:3:forces:R:3 energy=-14.303119864339989 pbc="F F F"
O       -0.02048085      -0.10129139       0.04262502       0.66986791       1.00570816      -0.21659181
H        0.82727743       0.31081883       0.38553755      -0.23718071      -0.57445778       0.23323663
H       -0.21504683       0.60441493      -0.60980713      -0.43268720      -0.43125038      -0.01664483
3
Properties=species:S:1:pos:R:3:forces:R:3 energy=-14.36590030958324 pbc="F F F"
O        0.06861715      -0.02399533      -0.00858460      -0.44234047       0.19601409       0.21839692
H       -0.07209565      -0.89482464       0.31374239       0.23229460      -0.39325590      -0.03602676
H       -0.70815822       0.47309848       0.33350855       0.21004587       0.19724181      -0.18237016
