3
Properties=species:S:1:pos:R:3:forces:R:3 energy=-14.350502967834473 pbc="F F F"
O        0.06797811      -0.01890251       0.07273637      -0.26881099       1.85549343      -0.33252341
H       -0.78644092      -0.01240405       0.62066003      -0.18763241      -1.64416528       0.55956429
H       -0.27573855       0.15682843      -0.86310595       0.45644343      -0.21132825      -0.22704087
3
Properties=species:S:1:pos:R:3:forces:R:3 energy=-14.350502967834473 pbc="F F F"
O        0.01105998      -0.07835698       0.02516336      -0.26881099       1.85549343      -0.33252341
H        0.67966488       0.62991141       0.10439657      -0.18763241      -1.64416528       0.55956429
H       -0.76312645       0.39613979       0.28306952       0.45644343      -0.21132825      -0.22704087
3
Properties=species:S:1:pos:R:3:forces:R:3 energy=-14.350502967834473 pbc="F F F"
O       -0.02638466      -0.06211880      -0.01237097      -0.26881099       1.85549343      -0.33252341
H        0.57959029       0.74397699      -0.01260397      -0.18763241      -1.64416528       0.55956429
H       -0.22098823      -0.21869477       0.91965266       0.45644343      -0.21132825      -0.22704087
3
Properties=species:S:1:pos:R:3:forces:R:3 energy=-14.350502967834473 pbc="F F F"
O        0.06194806      -0.00844371       0.03203025      -0.26881099       1.85549343      -0.33252341
H       -0.58716004       0.52679820       0.48115244      -0.18763241      -1.64416528       0.55956429
H       -0.28572418      -0.80255466      -0.22768853       0.45644343      -0.21132825      -0.22704087
3
Properties=species:S:1:pos:R:3:forces:R:3 energy=-14.350502967834473 pbc="F F F"
O        0.03615587      -0.01108054       0.00638907      -0.26881099       1.85549343      -0.33252341
H       -0.61554851      -0.66816985      -0.32157857      -0.18763241      -1.64416528       0.55956429
H       -0.10075843       0.12734280       0.88254988       0.45644343      -0.21132825      -0.22704087
3
Properties=species:S:1:pos:R:3:forces:R:3 energy=-14.350502967834473 pbc="F F F"
O       -0.07416362      -0.06867725       0.04088030      -0.26881099       1.85549343      -0.33252341
H        0.61055196      -0.36322450      -0.58248405      -0.18763241      -1.64416528       0.55956429
H        0.46330241       0.67588254       0.45403624       0.45644343      -0.21132825      -0.22704087
3
Properties=species:S:1:pos:R:3:forces:R:3 energy=-14.350502967834473 pbc="F F F"
O        0.05416627      -0.04912016       0.01393194      -0.26881099       1.85549343      -0.33252341
H       -0.67842861      -0.17459086      -0.53492677      -0.18763241      -1.64416528       0.55956429
H       -0.17150093       0.35774305       0.84166137       0.45644343      -0.21132825      -0.22704087
3
Properties=species:S:1:pos:R:3:forces:R:3 energy=-14.350502967834473 pbc="F F F"
O        0.05730374      -0.06990073      -0.01079272      -0.26881099       1.85549343      -0.33252341
H       -0.62136038      -0.37408072       0.62788614      -0.18763241      -1.64416528       0.55956429
H       -0.11840963       0.87346812      -0.11047337       0.45644343      -0.21132825      -0.22704087
3
Properties=species:S:1:pos:R:3:forces:R:3 energy=-14.350502967834473 pbc="F F F"
O       -0.02048085      -0.10129139       0.04262502      -0.26881099       1.85549343      -0.33252341
H        0.82727743       0.31081883       0.38553755      -0.18763241      -1.64416528       0.55956429
H       -0.21504683       0.60441493      -0.60980713       0.45644343      -0.21132825      -0.22704087
3
Properties=species:S:1:pos:R:3:forces:R:3 energy=-14.350502967834473 pbc="F F F"
O        0.06861715      -0.02399533      -0.00858460      -0.26881099       1.85549343      -0.33252341
H       -0.07209565      -0.89482464       0.31374239      -0.18763241      -1.64416528       0.55956429
H       -0.70815822       0.47309848       0.33350855       0.45644343      -0.21132825      -0.22704087
